Circuit: * C:\Users\emiri\Desktop\SAPS\LTSpice\Analisis_Frecuencial_SallenKey_PasaBajos.asc

Direct Newton iteration for .op point succeeded.

Date: Wed Sep  6 18:03:57 2023
Total elapsed time: 0.115 seconds.

tnom = 27
temp = 27
method = trap
totiter = 3
traniter = 0
tranpoints = 0
accept = 0
rejected = 0
matrix size = 14
fillins = 5
solver = Normal
Avg thread counts: 12.0/0.0/12.0/7.2
Matrix Compiler1:      41 opcodes
Matrix Compiler2: 1.17 KB object code size
