Circuit: * C:\Users\emiri\Desktop\SAPS\LTSpice\Analisis_Temporal_PasaBajos.asc

Fatal Error: v1: Could not open wavefile: piano.wav

